Version 4
SHEET 1 5412 1748
TEXT 432 -576 Left 2 !.options gmin=1e-10\n.options abstol=1e-10\n.options reltol=0.001\n.options cshunt=1e-15
TEXT 416 -624 Left 4 ;Some commands to make simulation converge
